*SPEF "IEEE 1481-1999"
*DESIGN "Multipliers"
*DATE "Wed Jan 13 09:31:28 2016"
*VENDOR "SYNOPSYS INC"
*PROGRAM "Synopsys Design Compiler cmos"
*VERSION "B-2008.09-SP3"
*DESIGN_FLOW "SYNTHESIS"
*DIVIDER /
*DELIMITER :
*BUS_DELIMITER []
*T_UNIT 1.0 NS
*C_UNIT 1.0 PF
*R_UNIT 1.0 KOHM
*L_UNIT 1.0 HENRY

*PORTS

iClk I *L 0.000e+00 *S 0.000e+00 0.000e+00 
inRst I *L 0.000e+00 *S 0.000e+00 0.000e+00 
iXa\[31\] I *L 0.000e+00 *S 0.000e+00 0.000e+00 
iXa\[30\] I *L 0.000e+00 *S 0.000e+00 0.000e+00 
iXa\[29\] I *L 0.000e+00 *S 0.000e+00 0.000e+00 
iXa\[28\] I *L 0.000e+00 *S 0.000e+00 0.000e+00 
iXa\[27\] I *L 0.000e+00 *S 0.000e+00 0.000e+00 
iXa\[26\] I *L 0.000e+00 *S 0.000e+00 0.000e+00 
iXa\[25\] I *L 0.000e+00 *S 0.000e+00 0.000e+00 
iXa\[24\] I *L 0.000e+00 *S 0.000e+00 0.000e+00 
iXa\[23\] I *L 0.000e+00 *S 0.000e+00 0.000e+00 
iXa\[22\] I *L 0.000e+00 *S 0.000e+00 0.000e+00 
iXa\[21\] I *L 0.000e+00 *S 0.000e+00 0.000e+00 
iXa\[20\] I *L 0.000e+00 *S 0.000e+00 0.000e+00 
iXa\[19\] I *L 0.000e+00 *S 0.000e+00 0.000e+00 
iXa\[18\] I *L 0.000e+00 *S 0.000e+00 0.000e+00 
iXa\[17\] I *L 0.000e+00 *S 0.000e+00 0.000e+00 
iXa\[16\] I *L 0.000e+00 *S 0.000e+00 0.000e+00 
iXa\[15\] I *L 0.000e+00 *S 0.000e+00 0.000e+00 
iXa\[14\] I *L 0.000e+00 *S 0.000e+00 0.000e+00 
iXa\[13\] I *L 0.000e+00 *S 0.000e+00 0.000e+00 
iXa\[12\] I *L 0.000e+00 *S 0.000e+00 0.000e+00 
iXa\[11\] I *L 0.000e+00 *S 0.000e+00 0.000e+00 
iXa\[10\] I *L 0.000e+00 *S 0.000e+00 0.000e+00 
iXa\[9\] I *L 0.000e+00 *S 0.000e+00 0.000e+00 
iXa\[8\] I *L 0.000e+00 *S 0.000e+00 0.000e+00 
iXa\[7\] I *L 0.000e+00 *S 0.000e+00 0.000e+00 
iXa\[6\] I *L 0.000e+00 *S 0.000e+00 0.000e+00 
iXa\[5\] I *L 0.000e+00 *S 0.000e+00 0.000e+00 
iXa\[4\] I *L 0.000e+00 *S 0.000e+00 0.000e+00 
iXa\[3\] I *L 0.000e+00 *S 0.000e+00 0.000e+00 
iXa\[2\] I *L 0.000e+00 *S 0.000e+00 0.000e+00 
iXa\[1\] I *L 0.000e+00 *S 0.000e+00 0.000e+00 
iXa\[0\] I *L 0.000e+00 *S 0.000e+00 0.000e+00 
iXb\[31\] I *L 0.000e+00 *S 0.000e+00 0.000e+00 
iXb\[30\] I *L 0.000e+00 *S 0.000e+00 0.000e+00 
iXb\[29\] I *L 0.000e+00 *S 0.000e+00 0.000e+00 
iXb\[28\] I *L 0.000e+00 *S 0.000e+00 0.000e+00 
iXb\[27\] I *L 0.000e+00 *S 0.000e+00 0.000e+00 
iXb\[26\] I *L 0.000e+00 *S 0.000e+00 0.000e+00 
iXb\[25\] I *L 0.000e+00 *S 0.000e+00 0.000e+00 
iXb\[24\] I *L 0.000e+00 *S 0.000e+00 0.000e+00 
iXb\[23\] I *L 0.000e+00 *S 0.000e+00 0.000e+00 
iXb\[22\] I *L 0.000e+00 *S 0.000e+00 0.000e+00 
iXb\[21\] I *L 0.000e+00 *S 0.000e+00 0.000e+00 
iXb\[20\] I *L 0.000e+00 *S 0.000e+00 0.000e+00 
iXb\[19\] I *L 0.000e+00 *S 0.000e+00 0.000e+00 
iXb\[18\] I *L 0.000e+00 *S 0.000e+00 0.000e+00 
iXb\[17\] I *L 0.000e+00 *S 0.000e+00 0.000e+00 
iXb\[16\] I *L 0.000e+00 *S 0.000e+00 0.000e+00 
iXb\[15\] I *L 0.000e+00 *S 0.000e+00 0.000e+00 
iXb\[14\] I *L 0.000e+00 *S 0.000e+00 0.000e+00 
iXb\[13\] I *L 0.000e+00 *S 0.000e+00 0.000e+00 
iXb\[12\] I *L 0.000e+00 *S 0.000e+00 0.000e+00 
iXb\[11\] I *L 0.000e+00 *S 0.000e+00 0.000e+00 
iXb\[10\] I *L 0.000e+00 *S 0.000e+00 0.000e+00 
iXb\[9\] I *L 0.000e+00 *S 0.000e+00 0.000e+00 
iXb\[8\] I *L 0.000e+00 *S 0.000e+00 0.000e+00 
iXb\[7\] I *L 0.000e+00 *S 0.000e+00 0.000e+00 
iXb\[6\] I *L 0.000e+00 *S 0.000e+00 0.000e+00 
iXb\[5\] I *L 0.000e+00 *S 0.000e+00 0.000e+00 
iXb\[4\] I *L 0.000e+00 *S 0.000e+00 0.000e+00 
iXb\[3\] I *L 0.000e+00 *S 0.000e+00 0.000e+00 
iXb\[2\] I *L 0.000e+00 *S 0.000e+00 0.000e+00 
iXb\[1\] I *L 0.000e+00 *S 0.000e+00 0.000e+00 
iXb\[0\] I *L 0.000e+00 *S 0.000e+00 0.000e+00 
iYa\[31\] I *L 0.000e+00 *S 0.000e+00 0.000e+00 
iYa\[30\] I *L 0.000e+00 *S 0.000e+00 0.000e+00 
iYa\[29\] I *L 0.000e+00 *S 0.000e+00 0.000e+00 
iYa\[28\] I *L 0.000e+00 *S 0.000e+00 0.000e+00 
iYa\[27\] I *L 0.000e+00 *S 0.000e+00 0.000e+00 
iYa\[26\] I *L 0.000e+00 *S 0.000e+00 0.000e+00 
iYa\[25\] I *L 0.000e+00 *S 0.000e+00 0.000e+00 
iYa\[24\] I *L 0.000e+00 *S 0.000e+00 0.000e+00 
iYa\[23\] I *L 0.000e+00 *S 0.000e+00 0.000e+00 
iYa\[22\] I *L 0.000e+00 *S 0.000e+00 0.000e+00 
iYa\[21\] I *L 0.000e+00 *S 0.000e+00 0.000e+00 
iYa\[20\] I *L 0.000e+00 *S 0.000e+00 0.000e+00 
iYa\[19\] I *L 0.000e+00 *S 0.000e+00 0.000e+00 
iYa\[18\] I *L 0.000e+00 *S 0.000e+00 0.000e+00 
iYa\[17\] I *L 0.000e+00 *S 0.000e+00 0.000e+00 
iYa\[16\] I *L 0.000e+00 *S 0.000e+00 0.000e+00 
iYa\[15\] I *L 0.000e+00 *S 0.000e+00 0.000e+00 
iYa\[14\] I *L 0.000e+00 *S 0.000e+00 0.000e+00 
iYa\[13\] I *L 0.000e+00 *S 0.000e+00 0.000e+00 
iYa\[12\] I *L 0.000e+00 *S 0.000e+00 0.000e+00 
iYa\[11\] I *L 0.000e+00 *S 0.000e+00 0.000e+00 
iYa\[10\] I *L 0.000e+00 *S 0.000e+00 0.000e+00 
iYa\[9\] I *L 0.000e+00 *S 0.000e+00 0.000e+00 
iYa\[8\] I *L 0.000e+00 *S 0.000e+00 0.000e+00 
iYa\[7\] I *L 0.000e+00 *S 0.000e+00 0.000e+00 
iYa\[6\] I *L 0.000e+00 *S 0.000e+00 0.000e+00 
iYa\[5\] I *L 0.000e+00 *S 0.000e+00 0.000e+00 
iYa\[4\] I *L 0.000e+00 *S 0.000e+00 0.000e+00 
iYa\[3\] I *L 0.000e+00 *S 0.000e+00 0.000e+00 
iYa\[2\] I *L 0.000e+00 *S 0.000e+00 0.000e+00 
iYa\[1\] I *L 0.000e+00 *S 0.000e+00 0.000e+00 
iYa\[0\] I *L 0.000e+00 *S 0.000e+00 0.000e+00 
iYb\[31\] I *L 0.000e+00 *S 0.000e+00 0.000e+00 
iYb\[30\] I *L 0.000e+00 *S 0.000e+00 0.000e+00 
iYb\[29\] I *L 0.000e+00 *S 0.000e+00 0.000e+00 
iYb\[28\] I *L 0.000e+00 *S 0.000e+00 0.000e+00 
iYb\[27\] I *L 0.000e+00 *S 0.000e+00 0.000e+00 
iYb\[26\] I *L 0.000e+00 *S 0.000e+00 0.000e+00 
iYb\[25\] I *L 0.000e+00 *S 0.000e+00 0.000e+00 
iYb\[24\] I *L 0.000e+00 *S 0.000e+00 0.000e+00 
iYb\[23\] I *L 0.000e+00 *S 0.000e+00 0.000e+00 
iYb\[22\] I *L 0.000e+00 *S 0.000e+00 0.000e+00 
iYb\[21\] I *L 0.000e+00 *S 0.000e+00 0.000e+00 
iYb\[20\] I *L 0.000e+00 *S 0.000e+00 0.000e+00 
iYb\[19\] I *L 0.000e+00 *S 0.000e+00 0.000e+00 
iYb\[18\] I *L 0.000e+00 *S 0.000e+00 0.000e+00 
iYb\[17\] I *L 0.000e+00 *S 0.000e+00 0.000e+00 
iYb\[16\] I *L 0.000e+00 *S 0.000e+00 0.000e+00 
iYb\[15\] I *L 0.000e+00 *S 0.000e+00 0.000e+00 
iYb\[14\] I *L 0.000e+00 *S 0.000e+00 0.000e+00 
iYb\[13\] I *L 0.000e+00 *S 0.000e+00 0.000e+00 
iYb\[12\] I *L 0.000e+00 *S 0.000e+00 0.000e+00 
iYb\[11\] I *L 0.000e+00 *S 0.000e+00 0.000e+00 
iYb\[10\] I *L 0.000e+00 *S 0.000e+00 0.000e+00 
iYb\[9\] I *L 0.000e+00 *S 0.000e+00 0.000e+00 
iYb\[8\] I *L 0.000e+00 *S 0.000e+00 0.000e+00 
iYb\[7\] I *L 0.000e+00 *S 0.000e+00 0.000e+00 
iYb\[6\] I *L 0.000e+00 *S 0.000e+00 0.000e+00 
iYb\[5\] I *L 0.000e+00 *S 0.000e+00 0.000e+00 
iYb\[4\] I *L 0.000e+00 *S 0.000e+00 0.000e+00 
iYb\[3\] I *L 0.000e+00 *S 0.000e+00 0.000e+00 
iYb\[2\] I *L 0.000e+00 *S 0.000e+00 0.000e+00 
iYb\[1\] I *L 0.000e+00 *S 0.000e+00 0.000e+00 
iYb\[0\] I *L 0.000e+00 *S 0.000e+00 0.000e+00 
iEn I *L 0.000e+00 *S 0.000e+00 0.000e+00 
oX\[63\] O *L 0.000e+00 *S 3.438e-02 3.438e-02 
oX\[62\] O *L 0.000e+00 *S 3.438e-02 3.438e-02 
oX\[61\] O *L 0.000e+00 *S 3.438e-02 3.438e-02 
oX\[60\] O *L 0.000e+00 *S 3.438e-02 3.438e-02 
oX\[59\] O *L 0.000e+00 *S 3.438e-02 3.438e-02 
oX\[58\] O *L 0.000e+00 *S 3.438e-02 3.438e-02 
oX\[57\] O *L 0.000e+00 *S 3.438e-02 3.438e-02 
oX\[56\] O *L 0.000e+00 *S 3.438e-02 3.438e-02 
oX\[55\] O *L 0.000e+00 *S 3.438e-02 3.438e-02 
oX\[54\] O *L 0.000e+00 *S 3.438e-02 3.438e-02 
oX\[53\] O *L 0.000e+00 *S 3.438e-02 3.438e-02 
oX\[52\] O *L 0.000e+00 *S 3.438e-02 3.438e-02 
oX\[51\] O *L 0.000e+00 *S 3.438e-02 3.438e-02 
oX\[50\] O *L 0.000e+00 *S 3.438e-02 3.438e-02 
oX\[49\] O *L 0.000e+00 *S 3.438e-02 3.438e-02 
oX\[48\] O *L 0.000e+00 *S 3.438e-02 3.438e-02 
oX\[47\] O *L 0.000e+00 *S 3.438e-02 3.438e-02 
oX\[46\] O *L 0.000e+00 *S 3.438e-02 3.438e-02 
oX\[45\] O *L 0.000e+00 *S 3.438e-02 3.438e-02 
oX\[44\] O *L 0.000e+00 *S 3.438e-02 3.438e-02 
oX\[43\] O *L 0.000e+00 *S 3.438e-02 3.438e-02 
oX\[42\] O *L 0.000e+00 *S 3.438e-02 3.438e-02 
oX\[41\] O *L 0.000e+00 *S 3.438e-02 3.438e-02 
oX\[40\] O *L 0.000e+00 *S 3.438e-02 3.438e-02 
oX\[39\] O *L 0.000e+00 *S 3.438e-02 3.438e-02 
oX\[38\] O *L 0.000e+00 *S 3.438e-02 3.438e-02 
oX\[37\] O *L 0.000e+00 *S 3.438e-02 3.438e-02 
oX\[36\] O *L 0.000e+00 *S 3.438e-02 3.438e-02 
oX\[35\] O *L 0.000e+00 *S 3.438e-02 3.438e-02 
oX\[34\] O *L 0.000e+00 *S 3.438e-02 3.438e-02 
oX\[33\] O *L 0.000e+00 *S 3.438e-02 3.438e-02 
oX\[32\] O *L 0.000e+00 *S 3.438e-02 3.438e-02 
oX\[31\] O *L 0.000e+00 *S 3.438e-02 3.438e-02 
oX\[30\] O *L 0.000e+00 *S 3.438e-02 3.438e-02 
oX\[29\] O *L 0.000e+00 *S 3.438e-02 3.438e-02 
oX\[28\] O *L 0.000e+00 *S 3.438e-02 3.438e-02 
oX\[27\] O *L 0.000e+00 *S 3.438e-02 3.438e-02 
oX\[26\] O *L 0.000e+00 *S 3.438e-02 3.438e-02 
oX\[25\] O *L 0.000e+00 *S 3.438e-02 3.438e-02 
oX\[24\] O *L 0.000e+00 *S 3.438e-02 3.438e-02 
oX\[23\] O *L 0.000e+00 *S 3.438e-02 3.438e-02 
oX\[22\] O *L 0.000e+00 *S 3.438e-02 3.438e-02 
oX\[21\] O *L 0.000e+00 *S 3.438e-02 3.438e-02 
oX\[20\] O *L 0.000e+00 *S 3.438e-02 3.438e-02 
oX\[19\] O *L 0.000e+00 *S 3.438e-02 3.438e-02 
oX\[18\] O *L 0.000e+00 *S 3.438e-02 3.438e-02 
oX\[17\] O *L 0.000e+00 *S 3.438e-02 3.438e-02 
oX\[16\] O *L 0.000e+00 *S 3.438e-02 3.438e-02 
oX\[15\] O *L 0.000e+00 *S 3.438e-02 3.438e-02 
oX\[14\] O *L 0.000e+00 *S 3.438e-02 3.438e-02 
oX\[13\] O *L 0.000e+00 *S 3.438e-02 3.438e-02 
oX\[12\] O *L 0.000e+00 *S 3.438e-02 3.438e-02 
oX\[11\] O *L 0.000e+00 *S 3.438e-02 3.438e-02 
oX\[10\] O *L 0.000e+00 *S 3.438e-02 3.438e-02 
oX\[9\] O *L 0.000e+00 *S 3.438e-02 3.438e-02 
oX\[8\] O *L 0.000e+00 *S 3.438e-02 3.438e-02 
oX\[7\] O *L 0.000e+00 *S 3.438e-02 3.438e-02 
oX\[6\] O *L 0.000e+00 *S 3.438e-02 3.438e-02 
oX\[5\] O *L 0.000e+00 *S 3.438e-02 3.438e-02 
oX\[4\] O *L 0.000e+00 *S 3.438e-02 3.438e-02 
oX\[3\] O *L 0.000e+00 *S 3.438e-02 3.438e-02 
oX\[2\] O *L 0.000e+00 *S 3.438e-02 3.438e-02 
oX\[1\] O *L 0.000e+00 *S 3.438e-02 3.438e-02 
oX\[0\] O *L 0.000e+00 *S 3.438e-02 3.438e-02 
oY\[63\] O *L 0.000e+00 *S 3.438e-02 3.438e-02 
oY\[62\] O *L 0.000e+00 *S 3.438e-02 3.438e-02 
oY\[61\] O *L 0.000e+00 *S 3.438e-02 3.438e-02 
oY\[60\] O *L 0.000e+00 *S 3.438e-02 3.438e-02 
oY\[59\] O *L 0.000e+00 *S 3.438e-02 3.438e-02 
oY\[58\] O *L 0.000e+00 *S 3.438e-02 3.438e-02 
oY\[57\] O *L 0.000e+00 *S 3.438e-02 3.438e-02 
oY\[56\] O *L 0.000e+00 *S 3.438e-02 3.438e-02 
oY\[55\] O *L 0.000e+00 *S 3.438e-02 3.438e-02 
oY\[54\] O *L 0.000e+00 *S 3.438e-02 3.438e-02 
oY\[53\] O *L 0.000e+00 *S 3.438e-02 3.438e-02 
oY\[52\] O *L 0.000e+00 *S 3.438e-02 3.438e-02 
oY\[51\] O *L 0.000e+00 *S 3.438e-02 3.438e-02 
oY\[50\] O *L 0.000e+00 *S 3.438e-02 3.438e-02 
oY\[49\] O *L 0.000e+00 *S 3.438e-02 3.438e-02 
oY\[48\] O *L 0.000e+00 *S 3.438e-02 3.438e-02 
oY\[47\] O *L 0.000e+00 *S 3.438e-02 3.438e-02 
oY\[46\] O *L 0.000e+00 *S 3.438e-02 3.438e-02 
oY\[45\] O *L 0.000e+00 *S 3.438e-02 3.438e-02 
oY\[44\] O *L 0.000e+00 *S 3.438e-02 3.438e-02 
oY\[43\] O *L 0.000e+00 *S 3.438e-02 3.438e-02 
oY\[42\] O *L 0.000e+00 *S 3.438e-02 3.438e-02 
oY\[41\] O *L 0.000e+00 *S 3.438e-02 3.438e-02 
oY\[40\] O *L 0.000e+00 *S 3.438e-02 3.438e-02 
oY\[39\] O *L 0.000e+00 *S 3.438e-02 3.438e-02 
oY\[38\] O *L 0.000e+00 *S 3.438e-02 3.438e-02 
oY\[37\] O *L 0.000e+00 *S 3.438e-02 3.438e-02 
oY\[36\] O *L 0.000e+00 *S 3.438e-02 3.438e-02 
oY\[35\] O *L 0.000e+00 *S 3.438e-02 3.438e-02 
oY\[34\] O *L 0.000e+00 *S 3.438e-02 3.438e-02 
oY\[33\] O *L 0.000e+00 *S 3.438e-02 3.438e-02 
oY\[32\] O *L 0.000e+00 *S 3.438e-02 3.438e-02 
oY\[31\] O *L 0.000e+00 *S 3.438e-02 3.438e-02 
oY\[30\] O *L 0.000e+00 *S 3.438e-02 3.438e-02 
oY\[29\] O *L 0.000e+00 *S 3.438e-02 3.438e-02 
oY\[28\] O *L 0.000e+00 *S 3.438e-02 3.438e-02 
oY\[27\] O *L 0.000e+00 *S 3.438e-02 3.438e-02 
oY\[26\] O *L 0.000e+00 *S 3.438e-02 3.438e-02 
oY\[25\] O *L 0.000e+00 *S 3.438e-02 3.438e-02 
oY\[24\] O *L 0.000e+00 *S 3.438e-02 3.438e-02 
oY\[23\] O *L 0.000e+00 *S 3.438e-02 3.438e-02 
oY\[22\] O *L 0.000e+00 *S 3.438e-02 3.438e-02 
oY\[21\] O *L 0.000e+00 *S 3.438e-02 3.438e-02 
oY\[20\] O *L 0.000e+00 *S 3.438e-02 3.438e-02 
oY\[19\] O *L 0.000e+00 *S 3.438e-02 3.438e-02 
oY\[18\] O *L 0.000e+00 *S 3.438e-02 3.438e-02 
oY\[17\] O *L 0.000e+00 *S 3.438e-02 3.438e-02 
oY\[16\] O *L 0.000e+00 *S 3.438e-02 3.438e-02 
oY\[15\] O *L 0.000e+00 *S 3.438e-02 3.438e-02 
oY\[14\] O *L 0.000e+00 *S 3.438e-02 3.438e-02 
oY\[13\] O *L 0.000e+00 *S 3.438e-02 3.438e-02 
oY\[12\] O *L 0.000e+00 *S 3.438e-02 3.438e-02 
oY\[11\] O *L 0.000e+00 *S 3.438e-02 3.438e-02 
oY\[10\] O *L 0.000e+00 *S 3.438e-02 3.438e-02 
oY\[9\] O *L 0.000e+00 *S 3.438e-02 3.438e-02 
oY\[8\] O *L 0.000e+00 *S 3.438e-02 3.438e-02 
oY\[7\] O *L 0.000e+00 *S 3.438e-02 3.438e-02 
oY\[6\] O *L 0.000e+00 *S 3.438e-02 3.438e-02 
oY\[5\] O *L 0.000e+00 *S 3.438e-02 3.438e-02 
oY\[4\] O *L 0.000e+00 *S 3.438e-02 3.438e-02 
oY\[3\] O *L 0.000e+00 *S 3.438e-02 3.438e-02 
oY\[2\] O *L 0.000e+00 *S 3.438e-02 3.438e-02 
oY\[1\] O *L 0.000e+00 *S 3.438e-02 3.438e-02 
oY\[0\] O *L 0.000e+00 *S 3.438e-02 3.438e-02 
oReady O *L 0.000e+00 *S 3.105e-02 3.105e-02 

*R_NET iClk 3.151e+00
*DRIVER iClk
*CELL NULL
*C2_R1_C1 1.575e+00 1.813e+00 1.575e+00 
*LOADS
*RC R_reg_Y__0_:C 8.515e-05
*RC R_reg_X__0_:C 8.515e-05
*RC R_reg_Y__1_:C 8.515e-05
*RC R_reg_X__1_:C 8.515e-05
*RC R_reg_Y__2_:C 8.515e-05
*RC R_reg_X__2_:C 8.515e-05
*RC R_reg_Y__3_:C 8.515e-05
*RC R_reg_X__3_:C 8.515e-05
*RC R_reg_Y__4_:C 8.515e-05
*RC R_reg_X__4_:C 8.515e-05
*RC R_reg_YA__31_:C 8.515e-05
*RC R_reg_YB__27_:C 8.515e-05
*RC R_reg_YB__26_:C 8.515e-05
*RC R_reg_YB__25_:C 8.515e-05
*RC R_reg_YB__24_:C 8.515e-05
*RC R_reg_YB__23_:C 8.515e-05
*RC R_reg_YB__22_:C 8.515e-05
*RC R_reg_YB__21_:C 8.515e-05
*RC R_reg_YB__20_:C 8.515e-05
*RC R_reg_YB__19_:C 8.515e-05
*RC R_reg_YB__18_:C 8.515e-05
*RC R_reg_YB__17_:C 8.515e-05
*RC R_reg_YB__16_:C 8.515e-05
*RC R_reg_YB__15_:C 8.515e-05
*RC R_reg_YB__14_:C 8.515e-05
*RC R_reg_YB__13_:C 8.515e-05
*RC R_reg_YB__12_:C 8.515e-05
*RC R_reg_YB__11_:C 8.515e-05
*RC R_reg_YB__10_:C 8.515e-05
*RC R_reg_YB__9_:C 8.515e-05
*RC R_reg_YB__8_:C 8.515e-05
*RC R_reg_YB__7_:C 8.515e-05
*RC R_reg_YB__6_:C 8.515e-05
*RC R_reg_YB__5_:C 8.515e-05
*RC R_reg_YB__4_:C 8.515e-05
*RC R_reg_YB__3_:C 8.515e-05
*RC R_reg_YB__2_:C 8.515e-05
*RC R_reg_YB__1_:C 8.515e-05
*RC R_reg_YB__0_:C 8.515e-05
*RC R_reg_YB__31_:C 8.515e-05
*RC R_reg_YB__30_:C 8.515e-05
*RC R_reg_YB__29_:C 8.515e-05
*RC R_reg_YB__28_:C 8.515e-05
*RC R_reg_YA__30_:C 8.515e-05
*RC R_reg_YA__29_:C 8.515e-05
*RC R_reg_YA__28_:C 8.515e-05
*RC R_reg_YA__27_:C 8.515e-05
*RC R_reg_YA__26_:C 8.515e-05
*RC R_reg_YA__25_:C 8.515e-05
*RC R_reg_YA__24_:C 8.515e-05
*RC R_reg_YA__23_:C 8.515e-05
*RC R_reg_YA__22_:C 8.515e-05
*RC R_reg_YA__21_:C 8.515e-05
*RC R_reg_YA__20_:C 8.515e-05
*RC R_reg_YA__19_:C 8.515e-05
*RC R_reg_YA__18_:C 8.515e-05
*RC R_reg_YA__17_:C 8.515e-05
*RC R_reg_YA__16_:C 8.515e-05
*RC R_reg_YA__15_:C 8.515e-05
*RC R_reg_YA__14_:C 8.515e-05
*RC R_reg_YA__13_:C 8.515e-05
*RC R_reg_YA__12_:C 8.515e-05
*RC R_reg_YA__11_:C 8.515e-05
*RC R_reg_YA__10_:C 8.515e-05
*RC R_reg_READY_:C 8.515e-05
*RC R_reg_STATE__0_:C 8.515e-05
*RC R_reg_STATE__1_:C 8.515e-05
*RC R_reg_X__5_:C 8.515e-05
*RC R_reg_Y__5_:C 8.515e-05
*RC R_reg_X__6_:C 8.515e-05
*RC R_reg_Y__6_:C 8.515e-05
*RC R_reg_X__7_:C 8.515e-05
*RC R_reg_Y__7_:C 8.515e-05
*RC R_reg_X__8_:C 8.515e-05
*RC R_reg_Y__8_:C 8.515e-05
*RC R_reg_X__9_:C 8.515e-05
*RC R_reg_Y__9_:C 8.515e-05
*RC R_reg_X__10_:C 8.515e-05
*RC R_reg_Y__10_:C 8.515e-05
*RC R_reg_X__11_:C 8.515e-05
*RC R_reg_Y__11_:C 8.515e-05
*RC R_reg_X__12_:C 8.515e-05
*RC R_reg_Y__12_:C 8.515e-05
*RC R_reg_X__13_:C 8.515e-05
*RC R_reg_Y__13_:C 8.515e-05
*RC R_reg_X__14_:C 8.515e-05
*RC R_reg_Y__14_:C 8.515e-05
*RC R_reg_X__15_:C 8.515e-05
*RC R_reg_Y__15_:C 8.515e-05
*RC R_reg_X__16_:C 8.515e-05
*RC R_reg_Y__16_:C 8.515e-05
*RC R_reg_X__17_:C 8.515e-05
*RC R_reg_Y__17_:C 8.515e-05
*RC R_reg_X__18_:C 8.515e-05
*RC R_reg_Y__18_:C 8.515e-05
*RC R_reg_X__19_:C 8.515e-05
*RC R_reg_Y__19_:C 8.515e-05
*RC R_reg_X__20_:C 8.515e-05
*RC R_reg_Y__20_:C 8.515e-05
*RC R_reg_X__21_:C 8.515e-05
*RC R_reg_Y__21_:C 8.515e-05
*RC R_reg_X__22_:C 8.515e-05
*RC R_reg_Y__22_:C 8.515e-05
*RC R_reg_X__23_:C 8.515e-05
*RC R_reg_Y__23_:C 8.515e-05
*RC R_reg_X__24_:C 8.515e-05
*RC R_reg_Y__24_:C 8.515e-05
*RC R_reg_X__25_:C 8.515e-05
*RC R_reg_Y__25_:C 8.515e-05
*RC R_reg_X__26_:C 8.515e-05
*RC R_reg_Y__26_:C 8.515e-05
*RC R_reg_X__27_:C 8.515e-05
*RC R_reg_Y__27_:C 8.515e-05
*RC R_reg_X__28_:C 8.515e-05
*RC R_reg_Y__28_:C 8.515e-05
*RC R_reg_X__29_:C 8.515e-05
*RC R_reg_Y__29_:C 8.515e-05
*RC R_reg_X__30_:C 8.515e-05
*RC R_reg_Y__30_:C 8.515e-05
*RC R_reg_X__31_:C 8.515e-05
*RC R_reg_Y__31_:C 8.515e-05
*RC R_reg_X__32_:C 8.515e-05
*RC R_reg_Y__32_:C 8.515e-05
*RC R_reg_X__33_:C 8.515e-05
*RC R_reg_Y__33_:C 8.515e-05
*RC R_reg_X__34_:C 8.515e-05
*RC R_reg_Y__34_:C 8.515e-05
*RC R_reg_X__35_:C 8.515e-05
*RC R_reg_Y__35_:C 8.515e-05
*RC R_reg_X__36_:C 8.515e-05
*RC R_reg_Y__36_:C 8.515e-05
*RC R_reg_X__37_:C 8.515e-05
*RC R_reg_Y__37_:C 8.515e-05
*RC R_reg_X__38_:C 8.515e-05
*RC R_reg_Y__38_:C 8.515e-05
*RC R_reg_X__39_:C 8.515e-05
*RC R_reg_Y__39_:C 8.515e-05
*RC R_reg_X__40_:C 8.515e-05
*RC R_reg_Y__40_:C 8.515e-05
*RC R_reg_X__41_:C 8.515e-05
*RC R_reg_Y__41_:C 8.515e-05
*RC R_reg_X__42_:C 8.515e-05
*RC R_reg_Y__42_:C 8.515e-05
*RC R_reg_X__43_:C 8.515e-05
*RC R_reg_Y__43_:C 8.515e-05
*RC R_reg_X__44_:C 8.515e-05
*RC R_reg_Y__44_:C 8.515e-05
*RC R_reg_X__45_:C 8.515e-05
*RC R_reg_Y__45_:C 8.515e-05
*RC R_reg_X__46_:C 8.515e-05
*RC R_reg_Y__46_:C 8.515e-05
*RC R_reg_X__47_:C 8.515e-05
*RC R_reg_Y__47_:C 8.515e-05
*RC R_reg_X__48_:C 8.515e-05
*RC R_reg_Y__48_:C 8.515e-05
*RC R_reg_X__49_:C 8.515e-05
*RC R_reg_Y__49_:C 8.515e-05
*RC R_reg_X__50_:C 8.515e-05
*RC R_reg_Y__50_:C 8.515e-05
*RC R_reg_X__51_:C 8.515e-05
*RC R_reg_Y__51_:C 8.515e-05
*RC R_reg_X__52_:C 8.515e-05
*RC R_reg_Y__52_:C 8.515e-05
*RC R_reg_X__53_:C 8.515e-05
*RC R_reg_Y__53_:C 8.515e-05
*RC R_reg_X__54_:C 8.515e-05
*RC R_reg_Y__54_:C 8.515e-05
*RC R_reg_X__55_:C 8.515e-05
*RC R_reg_Y__55_:C 8.515e-05
*RC R_reg_X__56_:C 8.515e-05
*RC R_reg_Y__56_:C 8.515e-05
*RC R_reg_X__57_:C 8.515e-05
*RC R_reg_Y__57_:C 8.515e-05
*RC R_reg_X__58_:C 8.515e-05
*RC R_reg_Y__58_:C 8.515e-05
*RC R_reg_X__59_:C 8.515e-05
*RC R_reg_Y__59_:C 8.515e-05
*RC R_reg_X__60_:C 8.515e-05
*RC R_reg_Y__60_:C 8.515e-05
*RC R_reg_X__61_:C 8.515e-05
*RC R_reg_Y__61_:C 8.515e-05
*RC R_reg_X__62_:C 8.515e-05
*RC R_reg_Y__62_:C 8.515e-05
*RC R_reg_X__63_:C 8.515e-05
*RC R_reg_Y__63_:C 8.515e-05
*RC R_reg_XB__0_:C 8.515e-05
*RC R_reg_XB__1_:C 8.515e-05
*RC R_reg_XB__2_:C 8.515e-05
*RC R_reg_XB__3_:C 8.515e-05
*RC R_reg_XB__4_:C 8.515e-05
*RC R_reg_XB__5_:C 8.515e-05
*RC R_reg_XB__6_:C 8.515e-05
*RC R_reg_XB__7_:C 8.515e-05
*RC R_reg_XB__8_:C 8.515e-05
*RC R_reg_XB__9_:C 8.515e-05
*RC R_reg_XB__10_:C 8.515e-05
*RC R_reg_XB__11_:C 8.515e-05
*RC R_reg_XB__12_:C 8.515e-05
*RC R_reg_XB__13_:C 8.515e-05
*RC R_reg_XB__14_:C 8.515e-05
*RC R_reg_XB__15_:C 8.515e-05
*RC R_reg_XB__16_:C 8.515e-05
*RC R_reg_XB__17_:C 8.515e-05
*RC R_reg_XB__18_:C 8.515e-05
*RC R_reg_XB__19_:C 8.515e-05
*RC R_reg_XB__20_:C 8.515e-05
*RC R_reg_XB__21_:C 8.515e-05
*RC R_reg_XB__22_:C 8.515e-05
*RC R_reg_XB__23_:C 8.515e-05
*RC R_reg_XB__24_:C 8.515e-05
*RC R_reg_XB__25_:C 8.515e-05
*RC R_reg_XB__26_:C 8.515e-05
*RC R_reg_XB__27_:C 8.515e-05
*RC R_reg_XB__28_:C 8.515e-05
*RC R_reg_XB__29_:C 8.515e-05
*RC R_reg_XB__30_:C 8.515e-05
*RC R_reg_XB__31_:C 8.515e-05
*RC R_reg_XA__0_:C 8.515e-05
*RC R_reg_XA__1_:C 8.515e-05
*RC R_reg_XA__2_:C 8.515e-05
*RC R_reg_XA__3_:C 8.515e-05
*RC R_reg_XA__4_:C 8.515e-05
*RC R_reg_XA__5_:C 8.515e-05
*RC R_reg_XA__6_:C 8.515e-05
*RC R_reg_XA__7_:C 8.515e-05
*RC R_reg_XA__8_:C 8.515e-05
*RC R_reg_XA__9_:C 8.515e-05
*RC R_reg_XA__10_:C 8.515e-05
*RC R_reg_XA__11_:C 8.515e-05
*RC R_reg_XA__12_:C 8.515e-05
*RC R_reg_XA__13_:C 8.515e-05
*RC R_reg_XA__14_:C 8.515e-05
*RC R_reg_XA__15_:C 8.515e-05
*RC R_reg_XA__16_:C 8.515e-05
*RC R_reg_XA__17_:C 8.515e-05
*RC R_reg_XA__18_:C 8.515e-05
*RC R_reg_XA__19_:C 8.515e-05
*RC R_reg_XA__20_:C 8.515e-05
*RC R_reg_XA__21_:C 8.515e-05
*RC R_reg_XA__22_:C 8.515e-05
*RC R_reg_XA__23_:C 8.515e-05
*RC R_reg_XA__24_:C 8.515e-05
*RC R_reg_XA__25_:C 8.515e-05
*RC R_reg_XA__26_:C 8.515e-05
*RC R_reg_XA__27_:C 8.515e-05
*RC R_reg_XA__28_:C 8.515e-05
*RC R_reg_XA__29_:C 8.515e-05
*RC R_reg_XA__30_:C 8.515e-05
*RC R_reg_XA__31_:C 8.515e-05
*RC R_reg_YA__3_:C 8.515e-05
*RC R_reg_YA__4_:C 8.515e-05
*RC R_reg_YA__5_:C 8.515e-05
*RC R_reg_YA__6_:C 8.515e-05
*RC R_reg_YA__7_:C 8.515e-05
*RC R_reg_YA__8_:C 8.515e-05
*RC R_reg_YA__9_:C 8.515e-05
*RC R_reg_YA__0_:C 8.515e-05
*RC R_reg_YA__1_:C 8.515e-05
*RC R_reg_YA__2_:C 8.515e-05
*END

*R_NET inRst 0.000e+00
*DRIVER inRst
*CELL NULL
*C2_R1_C1 0.000e+00 1.813e+00 0.000e+00 
*LOADS
*RC R_reg_Y__0_:RN 0.000e+00
*RC R_reg_X__0_:RN 0.000e+00
*RC R_reg_Y__1_:RN 0.000e+00
*RC R_reg_X__1_:RN 0.000e+00
*RC R_reg_Y__2_:RN 0.000e+00
*RC R_reg_X__2_:RN 0.000e+00
*RC R_reg_Y__3_:RN 0.000e+00
*RC R_reg_X__3_:RN 0.000e+00
*RC R_reg_Y__4_:RN 0.000e+00
*RC R_reg_X__4_:RN 0.000e+00
*RC R_reg_YA__31_:RN 0.000e+00
*RC R_reg_YB__27_:RN 0.000e+00
*RC R_reg_YB__26_:RN 0.000e+00
*RC R_reg_YB__25_:RN 0.000e+00
*RC R_reg_YB__24_:RN 0.000e+00
*RC R_reg_YB__23_:RN 0.000e+00
*RC R_reg_YB__22_:RN 0.000e+00
*RC R_reg_YB__21_:RN 0.000e+00
*RC R_reg_YB__20_:RN 0.000e+00
*RC R_reg_YB__19_:RN 0.000e+00
*RC R_reg_YB__18_:RN 0.000e+00
*RC R_reg_YB__17_:RN 0.000e+00
*RC R_reg_YB__16_:RN 0.000e+00
*RC R_reg_YB__15_:RN 0.000e+00
*RC R_reg_YB__14_:RN 0.000e+00
*RC R_reg_YB__13_:RN 0.000e+00
*RC R_reg_YB__12_:RN 0.000e+00
*RC R_reg_YB__11_:RN 0.000e+00
*RC R_reg_YB__10_:RN 0.000e+00
*RC R_reg_YB__9_:RN 0.000e+00
*RC R_reg_YB__8_:RN 0.000e+00
*RC R_reg_YB__7_:RN 0.000e+00
*RC R_reg_YB__6_:RN 0.000e+00
*RC R_reg_YB__5_:RN 0.000e+00
*RC R_reg_YB__4_:RN 0.000e+00
*RC R_reg_YB__3_:RN 0.000e+00
*RC R_reg_YB__2_:RN 0.000e+00
*RC R_reg_YB__1_:RN 0.000e+00
*RC R_reg_YB__0_:RN 0.000e+00
*RC R_reg_YB__31_:RN 0.000e+00
*RC R_reg_YB__30_:RN 0.000e+00
*RC R_reg_YB__29_:RN 0.000e+00
*RC R_reg_YB__28_:RN 0.000e+00
*RC R_reg_YA__30_:RN 0.000e+00
*RC R_reg_YA__29_:RN 0.000e+00
*RC R_reg_YA__28_:RN 0.000e+00
*RC R_reg_YA__27_:RN 0.000e+00
*RC R_reg_YA__26_:RN 0.000e+00
*RC R_reg_YA__25_:RN 0.000e+00
*RC R_reg_YA__24_:RN 0.000e+00
*RC R_reg_YA__23_:RN 0.000e+00
*RC R_reg_YA__22_:RN 0.000e+00
*RC R_reg_YA__21_:RN 0.000e+00
*RC R_reg_YA__20_:RN 0.000e+00
*RC R_reg_YA__19_:RN 0.000e+00
*RC R_reg_YA__18_:RN 0.000e+00
*RC R_reg_YA__17_:RN 0.000e+00
*RC R_reg_YA__16_:RN 0.000e+00
*RC R_reg_YA__15_:RN 0.000e+00
*RC R_reg_YA__14_:RN 0.000e+00
*RC R_reg_YA__13_:RN 0.000e+00
*RC R_reg_YA__12_:RN 0.000e+00
*RC R_reg_YA__11_:RN 0.000e+00
*RC R_reg_YA__10_:RN 0.000e+00
*RC R_reg_READY_:RN 0.000e+00
*RC R_reg_STATE__0_:RN 0.000e+00
*RC R_reg_STATE__1_:RN 0.000e+00
*RC R_reg_X__5_:RN 0.000e+00
*RC R_reg_Y__5_:RN 0.000e+00
*RC R_reg_X__6_:RN 0.000e+00
*RC R_reg_Y__6_:RN 0.000e+00
*RC R_reg_X__7_:RN 0.000e+00
*RC R_reg_Y__7_:RN 0.000e+00
*RC R_reg_X__8_:RN 0.000e+00
*RC R_reg_Y__8_:RN 0.000e+00
*RC R_reg_X__9_:RN 0.000e+00
*RC R_reg_Y__9_:RN 0.000e+00
*RC R_reg_X__10_:RN 0.000e+00
*RC R_reg_Y__10_:RN 0.000e+00
*RC R_reg_X__11_:RN 0.000e+00
*RC R_reg_Y__11_:RN 0.000e+00
*RC R_reg_X__12_:RN 0.000e+00
*RC R_reg_Y__12_:RN 0.000e+00
*RC R_reg_X__13_:RN 0.000e+00
*RC R_reg_Y__13_:RN 0.000e+00
*RC R_reg_X__14_:RN 0.000e+00
*RC R_reg_Y__14_:RN 0.000e+00
*RC R_reg_X__15_:RN 0.000e+00
*RC R_reg_Y__15_:RN 0.000e+00
*RC R_reg_X__16_:RN 0.000e+00
*RC R_reg_Y__16_:RN 0.000e+00
*RC R_reg_X__17_:RN 0.000e+00
*RC R_reg_Y__17_:RN 0.000e+00
*RC R_reg_X__18_:RN 0.000e+00
*RC R_reg_Y__18_:RN 0.000e+00
*RC R_reg_X__19_:RN 0.000e+00
*RC R_reg_Y__19_:RN 0.000e+00
*RC R_reg_X__20_:RN 0.000e+00
*RC R_reg_Y__20_:RN 0.000e+00
*RC R_reg_X__21_:RN 0.000e+00
*RC R_reg_Y__21_:RN 0.000e+00
*RC R_reg_X__22_:RN 0.000e+00
*RC R_reg_Y__22_:RN 0.000e+00
*RC R_reg_X__23_:RN 0.000e+00
*RC R_reg_Y__23_:RN 0.000e+00
*RC R_reg_X__24_:RN 0.000e+00
*RC R_reg_Y__24_:RN 0.000e+00
*RC R_reg_X__25_:RN 0.000e+00
*RC R_reg_Y__25_:RN 0.000e+00
*RC R_reg_X__26_:RN 0.000e+00
*RC R_reg_Y__26_:RN 0.000e+00
*RC R_reg_X__27_:RN 0.000e+00
*RC R_reg_Y__27_:RN 0.000e+00
*RC R_reg_X__28_:RN 0.000e+00
*RC R_reg_Y__28_:RN 0.000e+00
*RC R_reg_X__29_:RN 0.000e+00
*RC R_reg_Y__29_:RN 0.000e+00
*RC R_reg_X__30_:RN 0.000e+00
*RC R_reg_Y__30_:RN 0.000e+00
*RC R_reg_X__31_:RN 0.000e+00
*RC R_reg_Y__31_:RN 0.000e+00
*RC R_reg_X__32_:RN 0.000e+00
*RC R_reg_Y__32_:RN 0.000e+00
*RC R_reg_X__33_:RN 0.000e+00
*RC R_reg_Y__33_:RN 0.000e+00
*RC R_reg_X__34_:RN 0.000e+00
*RC R_reg_Y__34_:RN 0.000e+00
*RC R_reg_X__35_:RN 0.000e+00
*RC R_reg_Y__35_:RN 0.000e+00
*RC R_reg_X__36_:RN 0.000e+00
*RC R_reg_Y__36_:RN 0.000e+00
*RC R_reg_X__37_:RN 0.000e+00
*RC R_reg_Y__37_:RN 0.000e+00
*RC R_reg_X__38_:RN 0.000e+00
*RC R_reg_Y__38_:RN 0.000e+00
*RC R_reg_X__39_:RN 0.000e+00
*RC R_reg_Y__39_:RN 0.000e+00
*RC R_reg_X__40_:RN 0.000e+00
*RC R_reg_Y__40_:RN 0.000e+00
*RC R_reg_X__41_:RN 0.000e+00
*RC R_reg_Y__41_:RN 0.000e+00
*RC R_reg_X__42_:RN 0.000e+00
*RC R_reg_Y__42_:RN 0.000e+00
*RC R_reg_X__43_:RN 0.000e+00
*RC R_reg_Y__43_:RN 0.000e+00
*RC R_reg_X__44_:RN 0.000e+00
*RC R_reg_Y__44_:RN 0.000e+00
*RC R_reg_X__45_:RN 0.000e+00
*RC R_reg_Y__45_:RN 0.000e+00
*RC R_reg_X__46_:RN 0.000e+00
*RC R_reg_Y__46_:RN 0.000e+00
*RC R_reg_X__47_:RN 0.000e+00
*RC R_reg_Y__47_:RN 0.000e+00
*RC R_reg_X__48_:RN 0.000e+00
*RC R_reg_Y__48_:RN 0.000e+00
*RC R_reg_X__49_:RN 0.000e+00
*RC R_reg_Y__49_:RN 0.000e+00
*RC R_reg_X__50_:RN 0.000e+00
*RC R_reg_Y__50_:RN 0.000e+00
*RC R_reg_X__51_:RN 0.000e+00
*RC R_reg_Y__51_:RN 0.000e+00
*RC R_reg_X__52_:RN 0.000e+00
*RC R_reg_Y__52_:RN 0.000e+00
*RC R_reg_X__53_:RN 0.000e+00
*RC R_reg_Y__53_:RN 0.000e+00
*RC R_reg_X__54_:RN 0.000e+00
*RC R_reg_Y__54_:RN 0.000e+00
*RC R_reg_X__55_:RN 0.000e+00
*RC R_reg_Y__55_:RN 0.000e+00
*RC R_reg_X__56_:RN 0.000e+00
*RC R_reg_Y__56_:RN 0.000e+00
*RC R_reg_X__57_:RN 0.000e+00
*RC R_reg_Y__57_:RN 0.000e+00
*RC R_reg_X__58_:RN 0.000e+00
*RC R_reg_Y__58_:RN 0.000e+00
*RC R_reg_X__59_:RN 0.000e+00
*RC R_reg_Y__59_:RN 0.000e+00
*RC R_reg_X__60_:RN 0.000e+00
*RC R_reg_Y__60_:RN 0.000e+00
*RC R_reg_X__61_:RN 0.000e+00
*RC R_reg_Y__61_:RN 0.000e+00
*RC R_reg_X__62_:RN 0.000e+00
*RC R_reg_Y__62_:RN 0.000e+00
*RC R_reg_X__63_:RN 0.000e+00
*RC R_reg_Y__63_:RN 0.000e+00
*RC R_reg_XB__0_:RN 0.000e+00
*RC R_reg_XB__1_:RN 0.000e+00
*RC R_reg_XB__2_:RN 0.000e+00
*RC R_reg_XB__3_:RN 0.000e+00
*RC R_reg_XB__4_:RN 0.000e+00
*RC R_reg_XB__5_:RN 0.000e+00
*RC R_reg_XB__6_:RN 0.000e+00
*RC R_reg_XB__7_:RN 0.000e+00
*RC R_reg_XB__8_:RN 0.000e+00
*RC R_reg_XB__9_:RN 0.000e+00
*RC R_reg_XB__10_:RN 0.000e+00
*RC R_reg_XB__11_:RN 0.000e+00
*RC R_reg_XB__12_:RN 0.000e+00
*RC R_reg_XB__13_:RN 0.000e+00
*RC R_reg_XB__14_:RN 0.000e+00
*RC R_reg_XB__15_:RN 0.000e+00
*RC R_reg_XB__16_:RN 0.000e+00
*RC R_reg_XB__17_:RN 0.000e+00
*RC R_reg_XB__18_:RN 0.000e+00
*RC R_reg_XB__19_:RN 0.000e+00
*RC R_reg_XB__20_:RN 0.000e+00
*RC R_reg_XB__21_:RN 0.000e+00
*RC R_reg_XB__22_:RN 0.000e+00
*RC R_reg_XB__23_:RN 0.000e+00
*RC R_reg_XB__24_:RN 0.000e+00
*RC R_reg_XB__25_:RN 0.000e+00
*RC R_reg_XB__26_:RN 0.000e+00
*RC R_reg_XB__27_:RN 0.000e+00
*RC R_reg_XB__28_:RN 0.000e+00
*RC R_reg_XB__29_:RN 0.000e+00
*RC R_reg_XB__30_:RN 0.000e+00
*RC R_reg_XB__31_:RN 0.000e+00
*RC R_reg_XA__0_:RN 0.000e+00
*RC R_reg_XA__1_:RN 0.000e+00
*RC R_reg_XA__2_:RN 0.000e+00
*RC R_reg_XA__3_:RN 0.000e+00
*RC R_reg_XA__4_:RN 0.000e+00
*RC R_reg_XA__5_:RN 0.000e+00
*RC R_reg_XA__6_:RN 0.000e+00
*RC R_reg_XA__7_:RN 0.000e+00
*RC R_reg_XA__8_:RN 0.000e+00
*RC R_reg_XA__9_:RN 0.000e+00
*RC R_reg_XA__10_:RN 0.000e+00
*RC R_reg_XA__11_:RN 0.000e+00
*RC R_reg_XA__12_:RN 0.000e+00
*RC R_reg_XA__13_:RN 0.000e+00
*RC R_reg_XA__14_:RN 0.000e+00
*RC R_reg_XA__15_:RN 0.000e+00
*RC R_reg_XA__16_:RN 0.000e+00
*RC R_reg_XA__17_:RN 0.000e+00
*RC R_reg_XA__18_:RN 0.000e+00
*RC R_reg_XA__19_:RN 0.000e+00
*RC R_reg_XA__20_:RN 0.000e+00
*RC R_reg_XA__21_:RN 0.000e+00
*RC R_reg_XA__22_:RN 0.000e+00
*RC R_reg_XA__23_:RN 0.000e+00
*RC R_reg_XA__24_:RN 0.000e+00
*RC R_reg_XA__25_:RN 0.000e+00
*RC R_reg_XA__26_:RN 0.000e+00
*RC R_reg_XA__27_:RN 0.000e+00
*RC R_reg_XA__28_:RN 0.000e+00
*RC R_reg_XA__29_:RN 0.000e+00
*RC R_reg_XA__30_:RN 0.000e+00
*RC R_reg_XA__31_:RN 0.000e+00
*RC R_reg_YA__3_:RN 0.000e+00
*RC R_reg_YA__4_:RN 0.000e+00
*RC R_reg_YA__5_:RN 0.000e+00
*RC R_reg_YA__6_:RN 0.000e+00
*RC R_reg_YA__7_:RN 0.000e+00
*RC R_reg_YA__8_:RN 0.000e+00
*RC R_reg_YA__9_:RN 0.000e+00
*RC R_reg_YA__0_:RN 0.000e+00
*RC R_reg_YA__1_:RN 0.000e+00
*RC R_reg_YA__2_:RN 0.000e+00
*END

*R_NET iXa\[31\] 1.616e-02
*DRIVER iXa\[31\]
*CELL NULL
*C2_R1_C1 8.082e-03 7.000e-03 8.082e-03 
*LOADS
*RC U717:A 1.132e-04
*END

*R_NET iXa\[30\] 1.616e-02
*DRIVER iXa\[30\]
*CELL NULL
*C2_R1_C1 8.082e-03 7.000e-03 8.082e-03 
*LOADS
*RC U709:A 1.132e-04
*END

*R_NET iXa\[29\] 1.616e-02
*DRIVER iXa\[29\]
*CELL NULL
*C2_R1_C1 8.082e-03 7.000e-03 8.082e-03 
*LOADS
*RC U701:A 1.132e-04
*END

*R_NET iXa\[28\] 1.616e-02
*DRIVER iXa\[28\]
*CELL NULL
*C2_R1_C1 8.082e-03 7.000e-03 8.082e-03 
*LOADS
*RC U693:A 1.132e-04
*END

*R_NET iXa\[27\] 1.616e-02
*DRIVER iXa\[27\]
*CELL NULL
*C2_R1_C1 8.082e-03 7.000e-03 8.082e-03 
*LOADS
*RC U685:A 1.132e-04
*END

*R_NET iXa\[26\] 1.616e-02
*DRIVER iXa\[26\]
*CELL NULL
*C2_R1_C1 8.082e-03 7.000e-03 8.082e-03 
*LOADS
*RC U677:A 1.132e-04
*END

*R_NET iXa\[25\] 1.616e-02
*DRIVER iXa\[25\]
*CELL NULL
*C2_R1_C1 8.082e-03 7.000e-03 8.082e-03 
*LOADS
*RC U669:A 1.132e-04
*END

*R_NET iXa\[24\] 1.616e-02
*DRIVER iXa\[24\]
*CELL NULL
*C2_R1_C1 8.082e-03 7.000e-03 8.082e-03 
*LOADS
*RC U661:A 1.132e-04
*END

*R_NET iXa\[23\] 1.616e-02
*DRIVER iXa\[23\]
*CELL NULL
*C2_R1_C1 8.082e-03 7.000e-03 8.082e-03 
*LOADS
*RC U653:A 1.132e-04
*END

*R_NET iXa\[22\] 1.616e-02
*DRIVER iXa\[22\]
*CELL NULL
*C2_R1_C1 8.082e-03 7.000e-03 8.082e-03 
*LOADS
*RC U645:A 1.132e-04
*END

*R_NET iXa\[21\] 1.616e-02
*DRIVER iXa\[21\]
*CELL NULL
*C2_R1_C1 8.082e-03 7.000e-03 8.082e-03 
*LOADS
*RC U637:A 1.132e-04
*END

*R_NET iXa\[20\] 1.616e-02
*DRIVER iXa\[20\]
*CELL NULL